<?xml version="1.0" encoding="UTF-8"?>

<configuration xmlns:xsi="http://www.w3.org/2001/XMLSchema-instance" xsi:noNamespaceSchemaLocation="http://sumo.dlr.de/xsd/sumoConfiguration.xsd">

    <input>
        <net-file value="shihuxilu.net.xml"/>
        <route-files value="test.trips.xml"/>
        <!-- <additional-files value="test.det.xml"/> -->
    </input>
	
	<step-length value="0.1"/>
	
	<!-- <time> -->
		<!-- <end value="600"/> -->
		
	<!-- </time> -->

</configuration>